Version 4
SHEET 1 880 680
WIRE 336 -80 176 -80
WIRE 176 16 176 -80
WIRE 208 16 176 16
WIRE 128 80 112 80
WIRE 368 80 208 80
WIRE 336 128 336 -80
WIRE 336 128 288 128
WIRE 0 144 -272 144
WIRE 112 144 112 80
WIRE 112 144 80 144
WIRE 224 144 144 144
WIRE -272 160 -272 144
WIRE 112 160 112 144
WIRE 160 160 112 160
WIRE 320 160 288 160
WIRE 368 160 368 80
WIRE 496 160 368 160
WIRE 0 176 -144 176
WIRE 96 176 80 176
WIRE 144 176 144 144
WIRE 144 176 96 176
WIRE 160 176 160 160
WIRE 224 176 160 176
WIRE 368 192 368 160
WIRE 368 192 288 192
WIRE -144 224 -144 176
WIRE 176 256 96 256
WIRE 320 256 320 160
WIRE 320 256 176 256
WIRE 176 320 176 256
FLAG 288 16 0
FLAG 176 320 0
FLAG -144 304 0
FLAG -272 240 0
SYMBOL voltage 192 16 R270
WINDOW 0 32 56 VTop 2
WINDOW 3 -32 56 VBottom 2
WINDOW 123 0 0 Left 0
WINDOW 39 0 0 Left 0
SYMATTR InstName V1
SYMATTR Value 12
SYMBOL voltage -144 208 R0
WINDOW 123 0 0 Left 0
WINDOW 39 0 0 Left 0
SYMATTR InstName V2
SYMATTR Value 1
SYMBOL voltage -272 144 R0
WINDOW 123 0 0 Left 0
WINDOW 39 0 0 Left 0
SYMATTR InstName V3
SYMATTR Value 1
SYMBOL res 96 160 R90
WINDOW 0 0 56 VBottom 2
WINDOW 3 32 56 VTop 2
SYMATTR InstName R1
SYMATTR Value 10k
SYMBOL res 112 272 R180
WINDOW 0 36 76 Left 2
WINDOW 3 36 40 Left 2
SYMATTR InstName R3
SYMATTR Value 10k
SYMBOL res 96 128 R90
WINDOW 0 0 56 VBottom 2
WINDOW 3 32 56 VTop 2
SYMATTR InstName R4
SYMATTR Value 20k
SYMBOL res 224 64 R90
WINDOW 0 0 56 VBottom 2
WINDOW 3 32 56 VTop 2
SYMATTR InstName R2
SYMATTR Value 20k
SYMBOL AutoGenerated\\LM324 256 160 R0
SYMATTR InstName U1
TEXT -304 344 Left 2 !.dc V2 1 2 .1
