Version 4
SHEET 1 1216 680
WIRE 272 -256 256 -256
WIRE 400 -256 352 -256
WIRE 64 -240 -368 -240
WIRE 400 -208 400 -256
WIRE -368 -176 -368 -240
WIRE -256 -176 -368 -176
WIRE 256 -128 256 -256
WIRE 608 -128 256 -128
WIRE 736 -128 608 -128
WIRE 880 -128 736 -128
WIRE 256 -96 256 -128
WIRE 608 -96 608 -128
WIRE 880 -96 880 -128
WIRE 1008 -96 880 -96
WIRE 64 -80 64 -240
WIRE 64 -80 -96 -80
WIRE 880 -80 880 -96
WIRE -160 -64 -208 -64
WIRE -160 -32 -192 -32
WIRE -16 -16 -96 -16
WIRE 80 -16 -16 -16
WIRE 208 -16 176 -16
WIRE 544 -16 480 -16
WIRE 560 -16 544 -16
WIRE -208 0 -208 -64
WIRE -208 0 -736 0
WIRE 832 0 832 -16
WIRE 80 16 80 -16
WIRE 96 16 80 16
WIRE 176 16 176 -16
WIRE -192 32 -192 -32
WIRE -192 32 -256 32
WIRE 176 32 176 16
WIRE 480 32 480 -16
WIRE 480 32 176 32
WIRE 544 32 544 -16
WIRE 640 32 544 32
WIRE 832 32 832 0
WIRE 832 32 640 32
WIRE -736 48 -736 0
WIRE 256 112 256 0
WIRE 512 112 256 112
WIRE 608 112 608 0
WIRE 608 112 512 112
WIRE -256 144 -256 32
WIRE 256 144 256 112
WIRE 256 144 -256 144
WIRE 736 176 736 -128
WIRE 1008 176 1008 -96
WIRE 640 256 640 32
WIRE 688 256 640 256
WIRE 832 256 832 32
WIRE 960 256 832 256
WIRE 256 288 256 224
WIRE 512 352 512 112
WIRE 736 352 736 272
WIRE 736 352 512 352
WIRE 1008 352 1008 272
WIRE 1008 352 736 352
FLAG -736 128 0
FLAG 400 -208 0
FLAG 256 288 0
FLAG -256 -96 0
FLAG -16 64 0
FLAG -96 -48 0
SYMBOL voltage 256 -256 R270
WINDOW 0 32 56 VTop 2
WINDOW 3 -32 56 VBottom 2
WINDOW 123 0 0 Left 0
WINDOW 39 0 0 Left 0
SYMATTR InstName V2
SYMATTR Value 3
SYMBOL res 240 128 R0
SYMATTR InstName R1
SYMATTR Value 0.1195
SYMBOL nmos 208 -96 R0
SYMATTR InstName M1
SYMATTR Value irfb_s_sl3607pbf
SYMATTR Prefix X
SYMBOL voltage -736 32 R0
WINDOW 0 32 56 VTop 2
WINDOW 3 -32 56 VBottom 2
WINDOW 123 0 0 Left 0
WINDOW 39 0 0 Left 0
SYMATTR InstName V1
SYMATTR Value 0
SYMBOL voltage -256 -192 R0
WINDOW 0 32 56 VTop 2
WINDOW 3 -32 56 VBottom 2
WINDOW 123 0 0 Left 0
WINDOW 39 0 0 Left 0
SYMATTR InstName V3
SYMATTR Value 10
SYMBOL nmos 560 -96 R0
SYMATTR InstName M2
SYMATTR Value irfb_s_sl3607pbf
SYMATTR Prefix X
SYMBOL nmos 832 -80 R0
SYMATTR InstName M3
SYMATTR Value irfb_s_sl3607pbf
SYMATTR Prefix X
SYMBOL nmos 688 176 R0
SYMATTR InstName M4
SYMATTR Value irfb_s_sl3607pbf
SYMATTR Prefix X
SYMBOL nmos 960 176 R0
SYMATTR InstName M5
SYMATTR Value irfb_s_sl3607pbf
SYMATTR Prefix X
SYMBOL AutoGenerated\\LM324 -128 -48 R0
SYMATTR InstName U1
SYMBOL res 192 0 R90
WINDOW 0 0 56 VBottom 2
WINDOW 3 32 56 VTop 2
SYMATTR InstName R2
SYMATTR Value 300
SYMBOL res -32 -32 R0
SYMATTR InstName R3
SYMATTR Value 10k
TEXT -512 208 Left 2 !.include irfb_s_sl3607pbf.spi
TEXT -512 312 Left 2 !.dc V1 0 3.3 0.05
